[General]
network = Aloha
sim-time-limit = 500s
Aloha.numHosts = 50
Aloha.slotTime = 0s

Aloha.txRate = 20kbps

Aloha.host[*].pkLenBits = 320b 

**.x = uniform(0m, 1000m)
**.y = uniform(0m, 1000m)
**.animationHoldTimeOnCollision = 0s
**.idleAnimationSpeed = 1
**.transmissionEdgeAnimationSpeed = 1e-6
**.midTransmissionAnimationSpeed = 1e-1

[PureAloha0]
Aloha.txRate = 1Mbps
description = "load=0.1"
Aloha.host[*].iaTime = exponential(160ms)

[PureAloha1]
description = "load=0.2"
Aloha.txRate = 1Mbps
Aloha.host[*].iaTime = exponential(80ms)

[PureAloha2]
Aloha.txRate = 1Mbps
description = "load=0.3"
Aloha.host[*].iaTime = exponential(52ms)

[PureAloha3]
Aloha.txRate = 1Mbps
description = "load=0.4"
Aloha.host[*].iaTime = exponential(40ms)

[PureAloha4]
description = "load=0.5"
Aloha.txRate = 1Mbps
Aloha.host[*].iaTime = exponential(32ms)

[PureAloha5]
Aloha.txRate = 1Mbps
description = "load=0.6"

Aloha.host[*].iaTime = exponential(28ms)
 
[PureAloha6]
Aloha.txRate = 1Mbps
description = "load=0.7"
Aloha.host[*].iaTime = exponential(23ms)

[PureAloha7]
description = "load=0.8"
Aloha.txRate = 1Mbps
Aloha.host[*].iaTime = exponential(20ms)

[PureAloha8]
Aloha.txRate = 1Mbps
description = "load=0.9"
Aloha.host[*].iaTime = exponential(18ms)

[PureAloha9]
Aloha.txRate = 1Mbps
description = "load=1"
Aloha.host[*].iaTime = exponential(16ms)

